
     RDKit          3D

 30 33  0  0  0  0  0  0  0  0999 V2000
    4.2580   22.4134    5.3359 C   0  0  0  0  0  0  0  0  0  0  0  0
    4.6549   22.5765    6.7307 N   0  0  0  0  0  0  0  0  0  0  0  0
    3.6015   22.3741    7.7198 C   0  0  0  0  0  0  0  0  0  0  0  0
    5.7424   23.8155    7.0464 S   0  0  0  0  0  0  0  0  0  0  0  0
    6.8022   23.7021    6.0572 O   0  0  0  0  0  0  0  0  0  0  0  0
    6.0401   23.8237    8.4652 O   0  0  0  0  0  0  0  0  0  0  0  0
    4.7984   25.2662    6.7458 C   0  0  0  0  0  0  0  0  0  0  0  0
    4.0518   25.7666    7.8051 C   0  0  0  0  0  0  0  0  0  0  0  0
    3.2463   26.8772    7.6225 C   0  0  0  0  0  0  0  0  0  0  0  0
    3.2241   27.5059    6.3760 C   0  0  0  0  0  0  0  0  0  0  0  0
    2.5207   28.6960    6.1034 N   0  0  0  0  0  0  0  0  0  0  0  0
    1.4312   29.2130    6.7510 C   0  0  0  0  0  0  0  0  0  0  0  0
    0.7142   28.3592    7.5070 N   0  0  0  0  0  0  0  0  0  0  0  0
   -0.3587   28.8129    8.1390 C   0  0  0  0  0  0  0  0  0  0  0  0
   -1.0277   27.9985    8.9697 O   0  0  0  0  0  0  0  0  0  0  0  0
   -0.5952   26.6202    8.9892 C   0  0  0  0  0  0  0  0  0  0  0  0
   -1.2539   25.7832   10.1043 C   0  0  0  0  0  0  0  0  0  0  0  0
   -1.3352   24.3281    9.6030 C   0  0  0  0  0  0  0  0  0  0  0  0
   -1.7263   23.2833   10.6532 C   0  0  0  0  0  0  0  0  0  0  0  0
   -0.7959   23.3715   11.8646 C   0  0  0  0  0  0  0  0  0  0  0  0
   -0.7937   24.7855   12.4527 C   0  0  0  0  0  0  0  0  0  0  0  0
   -0.4117   25.8302   11.3950 C   0  0  0  0  0  0  0  0  0  0  0  0
   -0.7616   30.1437    7.9532 C   0  0  0  0  0  0  0  0  0  0  0  0
   -1.8396   30.8871    8.4014 N   0  0  0  0  0  0  0  0  0  0  0  0
   -1.6108   32.0799    7.9348 C   0  0  0  0  0  0  0  0  0  0  0  0
   -0.4521   32.1771    7.1911 N   0  0  0  0  0  0  0  0  0  0  0  0
    0.1050   30.9231    7.1741 C   0  0  0  0  0  0  0  0  0  0  0  0
    1.2000   30.5152    6.5288 N   0  0  0  0  0  0  0  0  0  0  0  0
    3.9958   26.9962    5.3257 C   0  0  0  0  0  0  0  0  0  0  0  0
    4.7709   25.8638    5.4942 C   0  0  0  0  0  0  0  0  0  0  0  0
  1  2  1  0
  2  3  1  0
  2  4  1  0
  4  5  2  0
  4  6  2  0
  4  7  1  0
  7  8  2  0
  8  9  1  0
  9 10  2  0
 10 11  1  0
 11 12  1  0
 12 13  2  0
 13 14  1  0
 14 15  1  0
 15 16  1  0
 16 17  1  0
 17 18  1  0
 18 19  1  0
 19 20  1  0
 20 21  1  0
 21 22  1  0
 14 23  2  0
 23 24  1  0
 24 25  2  0
 25 26  1  0
 26 27  1  0
 27 28  2  0
 10 29  1  0
 29 30  2  0
 30  7  1  0
 28 12  1  0
 22 17  1  0
 27 23  1  0
M  END
>  <cnnaffinities>  (1) 
[7.71301, 7.71319]

>  <score>  (1) 
7.71301

>  <index>  (1) 
10

>  <Smiles>  (1) 
C(N(C([H])([H])[H])S(=O)(=O)c1c(c(c(N(c2nc(OC(C3(C(C(C(C(C3([H])[H])([H])[H])([H])[H])([H])[H])([H])[H])[H])([H])[H])c3nc(n(c3n2)[H])[H])[H])c(c1[H])[H])[H])[H])([H])([H])[H]

>  <h>  (1) 
<NA>

>  <Training>  (1) 
True

>  <Success>  (1) 
True

>  <enamine_searched>  (1) 
False

>  <enamine_id>  (1) 
nan

$$$$

     RDKit          3D

 27 30  0  0  0  0  0  0  0  0999 V2000
    7.2920   24.2860    6.4488 C   0  0  0  0  0  0  0  0  0  0  0  0
    5.6821   23.6601    6.9654 S   0  0  0  0  0  4  0  0  0  0  0  0
    5.2937   22.6699    5.9051 O   0  0  0  0  0  0  0  0  0  0  0  0
    4.7729   25.1911    6.7097 C   0  0  0  0  0  0  0  0  0  0  0  0
    4.0780   25.7146    7.7929 C   0  0  0  0  0  0  0  0  0  0  0  0
    3.2862   26.8478    7.6444 C   0  0  0  0  0  0  0  0  0  0  0  0
    3.2442   27.4965    6.4053 C   0  0  0  0  0  0  0  0  0  0  0  0
    2.5659   28.7096    6.1444 N   0  0  0  0  0  0  0  0  0  0  0  0
    1.4555   29.2205    6.7656 C   0  0  0  0  0  0  0  0  0  0  0  0
    0.7455   28.3705    7.5309 N   0  0  0  0  0  0  0  0  0  0  0  0
   -0.3321   28.8215    8.1597 C   0  0  0  0  0  0  0  0  0  0  0  0
   -0.9844   28.0077    9.0047 O   0  0  0  0  0  0  0  0  0  0  0  0
   -0.5933   26.6200    8.9840 C   0  0  0  0  0  0  0  0  0  0  0  0
   -1.2523   25.7881   10.1024 C   0  0  0  0  0  0  0  0  0  0  0  0
   -1.3326   24.3305    9.6022 C   0  0  0  0  0  0  0  0  0  0  0  0
   -1.7308   23.2916   10.6573 C   0  0  0  0  0  0  0  0  0  0  0  0
   -0.7995   23.3752   11.8678 C   0  0  0  0  0  0  0  0  0  0  0  0
   -0.8032   24.7913   12.4507 C   0  0  0  0  0  0  0  0  0  0  0  0
   -0.4103   25.8361   11.3947 C   0  0  0  0  0  0  0  0  0  0  0  0
   -0.7568   30.1446    7.9564 C   0  0  0  0  0  0  0  0  0  0  0  0
   -1.8383   30.8836    8.4062 N   0  0  0  0  0  0  0  0  0  0  0  0
   -1.6256   32.0759    7.9228 C   0  0  0  0  0  0  0  0  0  0  0  0
   -0.4732   32.1746    7.1694 N   0  0  0  0  0  0  0  0  0  0  0  0
    0.0971   30.9236    7.1604 C   0  0  0  0  0  0  0  0  0  0  0  0
    1.2011   30.5156    6.5266 N   0  0  0  0  0  0  0  0  0  0  0  0
    3.9909   26.9814    5.3428 C   0  0  0  0  0  0  0  0  0  0  0  0
    4.7309   25.8220    5.4695 C   0  0  0  0  0  0  0  0  0  0  0  0
  2  1  1  6
  2  3  2  0
  2  4  1  0
  4  5  2  0
  5  6  1  0
  6  7  2  0
  7  8  1  0
  8  9  1  0
  9 10  2  0
 10 11  1  0
 11 12  1  0
 12 13  1  0
 13 14  1  0
 14 15  1  0
 15 16  1  0
 16 17  1  0
 17 18  1  0
 18 19  1  0
 11 20  2  0
 20 21  1  0
 21 22  2  0
 22 23  1  0
 23 24  1  0
 24 25  2  0
  7 26  1  0
 26 27  2  0
 27  4  1  0
 25  9  1  0
 19 14  1  0
 24 20  1  0
M  END
>  <cnnaffinities>  (2) 
[7.3752]

>  <score>  (2) 
7.3752

>  <index>  (2) 
9

>  <Smiles>  (2) 
C([S@](=O)c1c(c(c(N(c2nc(OC(C3(C(C(C(C(C3([H])[H])([H])[H])([H])[H])([H])[H])([H])[H])[H])([H])[H])c3nc(n(c3n2)[H])[H])[H])c(c1[H])[H])[H])[H])([H])([H])[H]

>  <h>  (2) 
<NA>

>  <Training>  (2) 
True

>  <Success>  (2) 
True

>  <enamine_searched>  (2) 
False

>  <enamine_id>  (2) 
nan

$$$$

     RDKit          3D

 29 32  0  0  0  0  0  0  0  0999 V2000
    3.5391   22.2087    7.2278 C   0  0  0  0  0  0  0  0  0  0  0  0
    4.7477   22.7621    7.8139 N   0  0  0  0  0  0  0  0  0  0  0  0
    5.7385   23.7574    6.9288 S   0  0  0  0  0  0  0  0  0  0  0  0
    6.8487   24.0843    7.7995 O   0  0  0  0  0  0  0  0  0  0  0  0
    5.9879   23.2028    5.6061 O   0  0  0  0  0  0  0  0  0  0  0  0
    4.7255   25.1791    6.7428 C   0  0  0  0  0  0  0  0  0  0  0  0
    4.0220   25.6966    7.8251 C   0  0  0  0  0  0  0  0  0  0  0  0
    3.2504   26.8377    7.6584 C   0  0  0  0  0  0  0  0  0  0  0  0
    3.2305   27.4781    6.4135 C   0  0  0  0  0  0  0  0  0  0  0  0
    2.5532   28.6850    6.1494 N   0  0  0  0  0  0  0  0  0  0  0  0
    1.4513   29.2126    6.7671 C   0  0  0  0  0  0  0  0  0  0  0  0
    0.7343   28.3620    7.5240 N   0  0  0  0  0  0  0  0  0  0  0  0
   -0.3381   28.8158    8.1495 C   0  0  0  0  0  0  0  0  0  0  0  0
   -0.9992   28.0060    8.9897 O   0  0  0  0  0  0  0  0  0  0  0  0
   -0.5942   26.6203    8.9871 C   0  0  0  0  0  0  0  0  0  0  0  0
   -1.2538   25.7866   10.1036 C   0  0  0  0  0  0  0  0  0  0  0  0
   -1.3324   24.3300    9.6059 C   0  0  0  0  0  0  0  0  0  0  0  0
   -1.7308   23.2868   10.6562 C   0  0  0  0  0  0  0  0  0  0  0  0
   -0.7972   23.3737   11.8651 C   0  0  0  0  0  0  0  0  0  0  0  0
   -0.8010   24.7871   12.4542 C   0  0  0  0  0  0  0  0  0  0  0  0
   -0.4131   25.8302   11.3957 C   0  0  0  0  0  0  0  0  0  0  0  0
   -0.7478   30.1421    7.9472 C   0  0  0  0  0  0  0  0  0  0  0  0
   -1.8306   30.8746    8.3956 N   0  0  0  0  0  0  0  0  0  0  0  0
   -1.6146   32.0663    7.9226 C   0  0  0  0  0  0  0  0  0  0  0  0
   -0.4595   32.1696    7.1710 N   0  0  0  0  0  0  0  0  0  0  0  0
    0.1134   30.9206    7.1594 C   0  0  0  0  0  0  0  0  0  0  0  0
    1.2150   30.5118    6.5217 N   0  0  0  0  0  0  0  0  0  0  0  0
    3.9948   26.9698    5.3537 C   0  0  0  0  0  0  0  0  0  0  0  0
    4.7290   25.8106    5.5068 C   0  0  0  0  0  0  0  0  0  0  0  0
  1  2  1  0
  2  3  1  0
  3  4  2  0
  3  5  2  0
  3  6  1  0
  6  7  2  0
  7  8  1  0
  8  9  2  0
  9 10  1  0
 10 11  1  0
 11 12  2  0
 12 13  1  0
 13 14  1  0
 14 15  1  0
 15 16  1  0
 16 17  1  0
 17 18  1  0
 18 19  1  0
 19 20  1  0
 20 21  1  0
 13 22  2  0
 22 23  1  0
 23 24  2  0
 24 25  1  0
 25 26  1  0
 26 27  2  0
  9 28  1  0
 28 29  2  0
 29  6  1  0
 27 11  1  0
 21 16  1  0
 26 22  1  0
M  END
>  <cnnaffinities>  (3) 
[7.34418]

>  <score>  (3) 
7.34418

>  <index>  (3) 
1

>  <Smiles>  (3) 
C(N(S(=O)(=O)c1c(c(c(N(c2nc(OC(C3(C(C(C(C(C3([H])[H])([H])[H])([H])[H])([H])[H])([H])[H])[H])([H])[H])c3nc(n(c3n2)[H])[H])[H])c(c1[H])[H])[H])[H])[H])([H])([H])[H]

>  <h>  (3) 
<NA>

>  <Training>  (3) 
True

>  <Success>  (3) 
True

>  <enamine_searched>  (3) 
False

>  <enamine_id>  (3) 
nan

$$$$

     RDKit          3D

 26 29  0  0  0  0  0  0  0  0999 V2000
    6.2671   23.4825    6.0248 C   0  0  0  0  0  0  0  0  0  0  0  0
    5.5500   24.0741    7.0863 O   0  0  0  0  0  0  0  0  0  0  0  0
    4.8188   25.1833    6.7856 C   0  0  0  0  0  0  0  0  0  0  0  0
    4.0782   25.7303    7.8343 C   0  0  0  0  0  0  0  0  0  0  0  0
    3.2884   26.8505    7.6459 C   0  0  0  0  0  0  0  0  0  0  0  0
    3.2636   27.4860    6.4030 C   0  0  0  0  0  0  0  0  0  0  0  0
    2.5662   28.6867    6.1415 N   0  0  0  0  0  0  0  0  0  0  0  0
    1.4557   29.2006    6.7679 C   0  0  0  0  0  0  0  0  0  0  0  0
    0.7344   28.3477    7.5196 N   0  0  0  0  0  0  0  0  0  0  0  0
   -0.3416   28.8081    8.1520 C   0  0  0  0  0  0  0  0  0  0  0  0
   -1.0018   28.0024    8.9954 O   0  0  0  0  0  0  0  0  0  0  0  0
   -0.5957   26.6172    8.9826 C   0  0  0  0  0  0  0  0  0  0  0  0
   -1.2560   25.7890   10.1014 C   0  0  0  0  0  0  0  0  0  0  0  0
   -1.3366   24.3325    9.6029 C   0  0  0  0  0  0  0  0  0  0  0  0
   -1.7317   23.2907   10.6556 C   0  0  0  0  0  0  0  0  0  0  0  0
   -0.7972   23.3751   11.8655 C   0  0  0  0  0  0  0  0  0  0  0  0
   -0.8005   24.7896   12.4546 C   0  0  0  0  0  0  0  0  0  0  0  0
   -0.4126   25.8344   11.3964 C   0  0  0  0  0  0  0  0  0  0  0  0
   -0.7481   30.1380    7.9516 C   0  0  0  0  0  0  0  0  0  0  0  0
   -1.8270   30.8766    8.3978 N   0  0  0  0  0  0  0  0  0  0  0  0
   -1.6111   32.0684    7.9202 C   0  0  0  0  0  0  0  0  0  0  0  0
   -0.4612   32.1646    7.1654 N   0  0  0  0  0  0  0  0  0  0  0  0
    0.1106   30.9129    7.1603 C   0  0  0  0  0  0  0  0  0  0  0  0
    1.2122   30.4971    6.5298 N   0  0  0  0  0  0  0  0  0  0  0  0
    4.0307   26.9575    5.3664 C   0  0  0  0  0  0  0  0  0  0  0  0
    4.7927   25.8062    5.5386 C   0  0  0  0  0  0  0  0  0  0  0  0
  1  2  1  0
  2  3  1  0
  3  4  2  0
  4  5  1  0
  5  6  2  0
  6  7  1  0
  7  8  1  0
  8  9  2  0
  9 10  1  0
 10 11  1  0
 11 12  1  0
 12 13  1  0
 13 14  1  0
 14 15  1  0
 15 16  1  0
 16 17  1  0
 17 18  1  0
 10 19  2  0
 19 20  1  0
 20 21  2  0
 21 22  1  0
 22 23  1  0
 23 24  2  0
  6 25  1  0
 25 26  2  0
 26  3  1  0
 24  8  1  0
 18 13  1  0
 23 19  1  0
M  END
>  <cnnaffinities>  (4) 
[7.26585]

>  <score>  (4) 
7.26585

>  <index>  (4) 
11

>  <Smiles>  (4) 
C(Oc1c(c(c(N(c2nc(OC(C3(C(C(C(C(C3([H])[H])([H])[H])([H])[H])([H])[H])([H])[H])[H])([H])[H])c3nc(n(c3n2)[H])[H])[H])c(c1[H])[H])[H])[H])([H])([H])[H]

>  <h>  (4) 
<NA>

>  <Training>  (4) 
True

>  <Success>  (4) 
True

>  <enamine_searched>  (4) 
False

>  <enamine_id>  (4) 
nan

$$$$

     RDKit          3D

 26 29  0  0  0  0  0  0  0  0999 V2000
    4.3366   24.0534    3.5001 C   0  0  0  0  0  0  0  0  0  0  0  0
    5.6505   25.1039    4.1780 S   0  0  0  0  0  0  0  0  0  0  0  0
    4.7666   25.8203    5.5526 C   0  0  0  0  0  0  0  0  0  0  0  0
    4.8279   25.2289    6.8187 C   0  0  0  0  0  0  0  0  0  0  0  0
    4.0871   25.7697    7.8622 C   0  0  0  0  0  0  0  0  0  0  0  0
    3.2785   26.8840    7.6753 C   0  0  0  0  0  0  0  0  0  0  0  0
    3.2670   27.5176    6.4312 C   0  0  0  0  0  0  0  0  0  0  0  0
    2.5648   28.7110    6.1541 N   0  0  0  0  0  0  0  0  0  0  0  0
    1.4452   29.2204    6.7691 C   0  0  0  0  0  0  0  0  0  0  0  0
    0.7264   28.3630    7.5185 N   0  0  0  0  0  0  0  0  0  0  0  0
   -0.3478   28.8206    8.1539 C   0  0  0  0  0  0  0  0  0  0  0  0
   -0.9988   28.0107    9.0015 O   0  0  0  0  0  0  0  0  0  0  0  0
   -0.5972   26.6234    8.9847 C   0  0  0  0  0  0  0  0  0  0  0  0
   -1.2554   25.7902   10.1025 C   0  0  0  0  0  0  0  0  0  0  0  0
   -1.3371   24.3330    9.6045 C   0  0  0  0  0  0  0  0  0  0  0  0
   -1.7330   23.2908   10.6569 C   0  0  0  0  0  0  0  0  0  0  0  0
   -0.7975   23.3753   11.8655 C   0  0  0  0  0  0  0  0  0  0  0  0
   -0.8007   24.7893   12.4547 C   0  0  0  0  0  0  0  0  0  0  0  0
   -0.4120   25.8333   11.3966 C   0  0  0  0  0  0  0  0  0  0  0  0
   -0.7605   30.1502    7.9566 C   0  0  0  0  0  0  0  0  0  0  0  0
   -1.8419   30.8885    8.4011 N   0  0  0  0  0  0  0  0  0  0  0  0
   -1.6291   32.0797    7.9231 C   0  0  0  0  0  0  0  0  0  0  0  0
   -0.4784   32.1805    7.1696 N   0  0  0  0  0  0  0  0  0  0  0  0
    0.0942   30.9285    7.1639 C   0  0  0  0  0  0  0  0  0  0  0  0
    1.1938   30.5135    6.5269 N   0  0  0  0  0  0  0  0  0  0  0  0
    4.0344   26.9937    5.3859 C   0  0  0  0  0  0  0  0  0  0  0  0
  1  2  1  0
  2  3  1  0
  3  4  2  0
  4  5  1  0
  5  6  2  0
  6  7  1  0
  7  8  1  0
  8  9  1  0
  9 10  2  0
 10 11  1  0
 11 12  1  0
 12 13  1  0
 13 14  1  0
 14 15  1  0
 15 16  1  0
 16 17  1  0
 17 18  1  0
 18 19  1  0
 11 20  2  0
 20 21  1  0
 21 22  2  0
 22 23  1  0
 23 24  1  0
 24 25  2  0
  7 26  2  0
 26  3  1  0
 25  9  1  0
 19 14  1  0
 24 20  1  0
M  END
>  <cnnaffinities>  (5) 
[7.24216]

>  <score>  (5) 
7.24216

>  <index>  (5) 
2

>  <Smiles>  (5) 
C(Sc1c(c(c(c(N(c2nc(OC(C3(C(C(C(C(C3([H])[H])([H])[H])([H])[H])([H])[H])([H])[H])[H])([H])[H])c3nc(n(c3n2)[H])[H])[H])c1[H])[H])[H])[H])([H])([H])[H]

>  <h>  (5) 
<NA>

>  <Training>  (5) 
True

>  <Success>  (5) 
True

>  <enamine_searched>  (5) 
False

>  <enamine_id>  (5) 
nan

$$$$

     RDKit          3D

 28 31  0  0  0  0  0  0  0  0999 V2000
    6.8553   24.1013    7.1626 C   0  0  0  0  0  0  0  0  0  0  0  0
    5.2505   23.4960    6.7385 S   0  0  0  0  0  0  0  0  0  0  0  0
    5.3433   22.8759    5.4173 O   0  0  0  0  0  0  0  0  0  0  0  0
    4.7156   22.7578    7.8716 O   0  0  0  0  0  0  0  0  0  0  0  0
    4.4038   25.0431    6.6096 C   0  0  0  0  0  0  0  0  0  0  0  0
    3.7844   25.6041    7.7202 C   0  0  0  0  0  0  0  0  0  0  0  0
    3.1792   26.8485    7.6144 C   0  0  0  0  0  0  0  0  0  0  0  0
    3.2404   27.5520    6.4037 C   0  0  0  0  0  0  0  0  0  0  0  0
    2.6575   28.8256    6.2257 N   0  0  0  0  0  0  0  0  0  0  0  0
    1.5083   29.2936    6.8112 C   0  0  0  0  0  0  0  0  0  0  0  0
    0.8143   28.4260    7.5722 N   0  0  0  0  0  0  0  0  0  0  0  0
   -0.2735   28.8415    8.2021 C   0  0  0  0  0  0  0  0  0  0  0  0
   -0.8681   28.0127    9.0737 O   0  0  0  0  0  0  0  0  0  0  0  0
   -0.5690   26.6042    8.9568 C   0  0  0  0  0  0  0  0  0  0  0  0
   -1.2209   25.7903   10.0870 C   0  0  0  0  0  0  0  0  0  0  0  0
   -1.3176   24.3339    9.5972 C   0  0  0  0  0  0  0  0  0  0  0  0
   -1.7385   23.3190   10.6608 C   0  0  0  0  0  0  0  0  0  0  0  0
   -0.8080   23.3995   11.8684 C   0  0  0  0  0  0  0  0  0  0  0  0
   -0.8237   24.8155   12.4452 C   0  0  0  0  0  0  0  0  0  0  0  0
   -0.4006   25.8501   11.3908 C   0  0  0  0  0  0  0  0  0  0  0  0
   -0.7602   30.1471    7.9872 C   0  0  0  0  0  0  0  0  0  0  0  0
   -1.8407   30.8925    8.4439 N   0  0  0  0  0  0  0  0  0  0  0  0
   -1.6604   32.0656    7.9106 C   0  0  0  0  0  0  0  0  0  0  0  0
   -0.5421   32.1587    7.1123 N   0  0  0  0  0  0  0  0  0  0  0  0
    0.0579   30.9264    7.1575 C   0  0  0  0  0  0  0  0  0  0  0  0
    1.1859   30.5647    6.5439 N   0  0  0  0  0  0  0  0  0  0  0  0
    3.9463   27.0108    5.3234 C   0  0  0  0  0  0  0  0  0  0  0  0
    4.5157   25.7545    5.4211 C   0  0  0  0  0  0  0  0  0  0  0  0
  1  2  1  0
  2  3  2  0
  2  4  2  0
  2  5  1  0
  5  6  2  0
  6  7  1  0
  7  8  2  0
  8  9  1  0
  9 10  1  0
 10 11  2  0
 11 12  1  0
 12 13  1  0
 13 14  1  0
 14 15  1  0
 15 16  1  0
 16 17  1  0
 17 18  1  0
 18 19  1  0
 19 20  1  0
 12 21  2  0
 21 22  1  0
 22 23  2  0
 23 24  1  0
 24 25  1  0
 25 26  2  0
  8 27  1  0
 27 28  2  0
 28  5  1  0
 26 10  1  0
 20 15  1  0
 25 21  1  0
M  END
>  <cnnaffinities>  (6) 
[7.23128, 7.23305]

>  <score>  (6) 
7.23128

>  <index>  (6) 
3

>  <Smiles>  (6) 
C(S(=O)(=O)c1c(c(c(N(c2nc(OC(C3(C(C(C(C(C3([H])[H])([H])[H])([H])[H])([H])[H])([H])[H])[H])([H])[H])c3nc(n(c3n2)[H])[H])[H])c(c1[H])[H])[H])[H])([H])([H])[H]

>  <h>  (6) 
<NA>

>  <Training>  (6) 
True

>  <Success>  (6) 
True

>  <enamine_searched>  (6) 
False

>  <enamine_id>  (6) 
nan

$$$$

     RDKit          3D

 27 30  0  0  0  0  0  0  0  0999 V2000
    5.1579   23.1284    7.9576 N   0  0  0  0  0  0  0  0  0  0  0  0
    5.5881   23.9461    6.9531 C   0  0  0  0  0  0  0  0  0  0  0  0
    6.5148   23.6602    6.2102 O   0  0  0  0  0  0  0  0  0  0  0  0
    4.8042   25.2086    6.8081 C   0  0  0  0  0  0  0  0  0  0  0  0
    4.0723   25.7674    7.8575 C   0  0  0  0  0  0  0  0  0  0  0  0
    3.2715   26.8836    7.6664 C   0  0  0  0  0  0  0  0  0  0  0  0
    3.2381   27.4968    6.4090 C   0  0  0  0  0  0  0  0  0  0  0  0
    2.5290   28.6802    6.1150 N   0  0  0  0  0  0  0  0  0  0  0  0
    1.4370   29.2109    6.7520 C   0  0  0  0  0  0  0  0  0  0  0  0
    0.7210   28.3620    7.5123 N   0  0  0  0  0  0  0  0  0  0  0  0
   -0.3490   28.8198    8.1441 C   0  0  0  0  0  0  0  0  0  0  0  0
   -1.0090   28.0089    8.9844 O   0  0  0  0  0  0  0  0  0  0  0  0
   -0.5962   26.6244    8.9896 C   0  0  0  0  0  0  0  0  0  0  0  0
   -1.2549   25.7865   10.1053 C   0  0  0  0  0  0  0  0  0  0  0  0
   -1.3352   24.3299    9.6064 C   0  0  0  0  0  0  0  0  0  0  0  0
   -1.7304   23.2848   10.6561 C   0  0  0  0  0  0  0  0  0  0  0  0
   -0.7970   23.3722   11.8650 C   0  0  0  0  0  0  0  0  0  0  0  0
   -0.7982   24.7857   12.4537 C   0  0  0  0  0  0  0  0  0  0  0  0
   -0.4131   25.8298   11.3959 C   0  0  0  0  0  0  0  0  0  0  0  0
   -0.7551   30.1482    7.9493 C   0  0  0  0  0  0  0  0  0  0  0  0
   -1.8391   30.8839    8.3961 N   0  0  0  0  0  0  0  0  0  0  0  0
   -1.6183   32.0764    7.9271 C   0  0  0  0  0  0  0  0  0  0  0  0
   -0.4594   32.1794    7.1818 N   0  0  0  0  0  0  0  0  0  0  0  0
    0.1077   30.9269    7.1645 C   0  0  0  0  0  0  0  0  0  0  0  0
    1.2036   30.5116    6.5178 N   0  0  0  0  0  0  0  0  0  0  0  0
    4.0223   26.9740    5.3698 C   0  0  0  0  0  0  0  0  0  0  0  0
    4.7926   25.8401    5.5654 C   0  0  0  0  0  0  0  0  0  0  0  0
  1  2  1  0
  2  3  2  0
  2  4  1  0
  4  5  2  0
  5  6  1  0
  6  7  2  0
  7  8  1  0
  8  9  1  0
  9 10  2  0
 10 11  1  0
 11 12  1  0
 12 13  1  0
 13 14  1  0
 14 15  1  0
 15 16  1  0
 16 17  1  0
 17 18  1  0
 18 19  1  0
 11 20  2  0
 20 21  1  0
 21 22  2  0
 22 23  1  0
 23 24  1  0
 24 25  2  0
  7 26  1  0
 26 27  2  0
 27  4  1  0
 25  9  1  0
 19 14  1  0
 24 20  1  0
M  END
>  <cnnaffinities>  (7) 
[7.22378]

>  <score>  (7) 
7.22378

>  <index>  (7) 
7

>  <Smiles>  (7) 
N(C(=O)c1c(c(c(N(c2nc(OC(C3(C(C(C(C(C3([H])[H])([H])[H])([H])[H])([H])[H])([H])[H])[H])([H])[H])c3nc(n(c3n2)[H])[H])[H])c(c1[H])[H])[H])[H])([H])[H]

>  <h>  (7) 
<NA>

>  <Training>  (7) 
True

>  <Success>  (7) 
True

>  <enamine_searched>  (7) 
False

>  <enamine_id>  (7) 
nan

$$$$

     RDKit          3D

 25 28  0  0  0  0  0  0  0  0999 V2000
    5.5759   24.1012    6.9597 O   0  0  0  0  0  0  0  0  0  0  0  0
    4.8041   25.2154    6.8113 C   0  0  0  0  0  0  0  0  0  0  0  0
    4.0535   25.7539    7.8511 C   0  0  0  0  0  0  0  0  0  0  0  0
    3.2827   26.8960    7.6533 C   0  0  0  0  0  0  0  0  0  0  0  0
    3.2622   27.5373    6.4160 C   0  0  0  0  0  0  0  0  0  0  0  0
    2.5845   28.7468    6.1488 N   0  0  0  0  0  0  0  0  0  0  0  0
    1.4611   29.2212    6.7775 C   0  0  0  0  0  0  0  0  0  0  0  0
    0.7818   28.3597    7.5392 N   0  0  0  0  0  0  0  0  0  0  0  0
   -0.2601   28.7588    8.2590 C   0  0  0  0  0  0  0  0  0  0  0  0
   -0.7391   27.8675    9.1614 O   0  0  0  0  0  0  0  0  0  0  0  0
   -0.2179   26.5096    8.9463 C   0  0  0  0  0  0  0  0  0  0  0  0
   -0.4205   25.4130   10.0055 C   0  0  0  0  0  0  0  0  0  0  0  0
   -1.5655   24.4543    9.6231 C   0  0  0  0  0  0  0  0  0  0  0  0
   -1.8115   23.3542   10.6898 C   0  0  0  0  0  0  0  0  0  0  0  0
   -0.8014   23.4222   11.8412 C   0  0  0  0  0  0  0  0  0  0  0  0
   -0.8542   24.8250   12.4563 C   0  0  0  0  0  0  0  0  0  0  0  0
   -0.5591   25.9499   11.4256 C   0  0  0  0  0  0  0  0  0  0  0  0
   -0.7583   30.0760    8.0483 C   0  0  0  0  0  0  0  0  0  0  0  0
   -1.8385   30.8305    8.4939 N   0  0  0  0  0  0  0  0  0  0  0  0
   -1.6600   32.0059    7.9619 C   0  0  0  0  0  0  0  0  0  0  0  0
   -0.5391   32.0899    7.1666 N   0  0  0  0  0  0  0  0  0  0  0  0
    0.0480   30.8561    7.1963 C   0  0  0  0  0  0  0  0  0  0  0  0
    1.1504   30.4985    6.5396 N   0  0  0  0  0  0  0  0  0  0  0  0
    4.0178   26.9825    5.3772 C   0  0  0  0  0  0  0  0  0  0  0  0
    4.7764   25.8364    5.5620 C   0  0  0  0  0  0  0  0  0  0  0  0
  1  2  1  0
  2  3  2  0
  3  4  1  0
  4  5  2  0
  5  6  1  0
  6  7  1  0
  7  8  2  0
  8  9  1  0
  9 10  1  0
 10 11  1  0
 11 12  1  0
 12 13  1  0
 13 14  1  0
 14 15  1  0
 15 16  1  0
 16 17  1  0
  9 18  2  0
 18 19  1  0
 19 20  2  0
 20 21  1  0
 21 22  1  0
 22 23  2  0
  5 24  1  0
 24 25  2  0
 25  2  1  0
 23  7  1  0
 17 12  1  0
 22 18  1  0
M  END
>  <cnnaffinities>  (8) 
[7.16134]

>  <score>  (8) 
7.16134

>  <index>  (8) 
12

>  <Smiles>  (8) 
O(c1c(c(c(N(c2nc(OC(C3(C(C(C(C(C3([H])[H])([H])[H])([H])[H])([H])[H])([H])[H])[H])([H])[H])c3nc(n(c3n2)[H])[H])[H])c(c1[H])[H])[H])[H])[H]

>  <h>  (8) 
<NA>

>  <Training>  (8) 
True

>  <Success>  (8) 
True

>  <enamine_searched>  (8) 
False

>  <enamine_id>  (8) 
nan

$$$$

     RDKit          3D

 30 33  0  0  0  0  0  0  0  0999 V2000
    3.1047   25.2506    9.9311 C   0  0  0  0  0  0  0  0  0  0  0  0
    4.1532   25.1006    9.0023 O   0  0  0  0  0  0  0  0  0  0  0  0
    4.0205   25.7224    7.8090 C   0  0  0  0  0  0  0  0  0  0  0  0
    3.1962   26.8281    7.6122 C   0  0  0  0  0  0  0  0  0  0  0  0
    3.2314   27.5108    6.3956 C   0  0  0  0  0  0  0  0  0  0  0  0
    2.5880   28.7450    6.1763 N   0  0  0  0  0  0  0  0  0  0  0  0
    1.4717   29.2481    6.7896 C   0  0  0  0  0  0  0  0  0  0  0  0
    0.7650   28.3923    7.5503 N   0  0  0  0  0  0  0  0  0  0  0  0
   -0.3090   28.8317    8.1892 C   0  0  0  0  0  0  0  0  0  0  0  0
   -0.9213   28.0086    9.0532 O   0  0  0  0  0  0  0  0  0  0  0  0
   -0.5873   26.6085    8.9791 C   0  0  0  0  0  0  0  0  0  0  0  0
   -1.2492   25.7881   10.1023 C   0  0  0  0  0  0  0  0  0  0  0  0
   -1.3313   24.3300    9.6031 C   0  0  0  0  0  0  0  0  0  0  0  0
   -1.7378   23.3061   10.6655 C   0  0  0  0  0  0  0  0  0  0  0  0
   -0.8089   23.3853   11.8745 C   0  0  0  0  0  0  0  0  0  0  0  0
   -0.8329   24.7979   12.4599 C   0  0  0  0  0  0  0  0  0  0  0  0
   -0.4322   25.8537   11.4151 C   0  0  0  0  0  0  0  0  0  0  0  0
   -0.7614   30.1460    7.9779 C   0  0  0  0  0  0  0  0  0  0  0  0
   -1.8449   30.8895    8.4260 N   0  0  0  0  0  0  0  0  0  0  0  0
   -1.6401   32.0661    7.9100 C   0  0  0  0  0  0  0  0  0  0  0  0
   -0.5047   32.1590    7.1340 N   0  0  0  0  0  0  0  0  0  0  0  0
    0.0800   30.9206    7.1633 C   0  0  0  0  0  0  0  0  0  0  0  0
    1.2002   30.5366    6.5450 N   0  0  0  0  0  0  0  0  0  0  0  0
    4.0022   27.0118    5.3406 C   0  0  0  0  0  0  0  0  0  0  0  0
    4.7567   25.8654    5.5103 C   0  0  0  0  0  0  0  0  0  0  0  0
    4.7654   25.2170    6.7397 C   0  0  0  0  0  0  0  0  0  0  0  0
    5.7905   23.8115    6.9927 S   0  0  0  0  0  0  0  0  0  0  0  0
    6.6999   24.1056    8.0777 O   0  0  0  0  0  0  0  0  0  0  0  0
    6.3019   23.3703    5.7032 O   0  0  0  0  0  0  0  0  0  0  0  0
    4.6899   22.6801    7.5539 N   0  0  0  0  0  0  0  0  0  0  0  0
  1  2  1  0
  2  3  1  0
  3  4  2  0
  4  5  1  0
  5  6  1  0
  6  7  1  0
  7  8  2  0
  8  9  1  0
  9 10  1  0
 10 11  1  0
 11 12  1  0
 12 13  1  0
 13 14  1  0
 14 15  1  0
 15 16  1  0
 16 17  1  0
  9 18  2  0
 18 19  1  0
 19 20  2  0
 20 21  1  0
 21 22  1  0
 22 23  2  0
  5 24  2  0
 24 25  1  0
 25 26  2  0
 26 27  1  0
 27 28  2  0
 27 29  2  0
 27 30  1  0
 26  3  1  0
 23  7  1  0
 17 12  1  0
 22 18  1  0
M  END
>  <cnnaffinities>  (9) 
[7.15405, 7.24671, 7.24654]

>  <score>  (9) 
7.15405

>  <index>  (9) 
14

>  <Smiles>  (9) 
C(Oc1c(c(N(c2nc(OC(C3(C(C(C(C(C3([H])[H])([H])[H])([H])[H])([H])[H])([H])[H])[H])([H])[H])c3nc(n(c3n2)[H])[H])[H])c(c(c1S(=O)(=O)N([H])[H])[H])[H])[H])([H])([H])[H]

>  <h>  (9) 
<NA>

>  <Training>  (9) 
True

>  <Success>  (9) 
True

>  <enamine_searched>  (9) 
False

>  <enamine_id>  (9) 
nan

$$$$

     RDKit          3D

 28 31  0  0  0  0  0  0  0  0999 V2000
    6.9452   23.9368    7.2167 N   0  0  0  0  0  0  0  0  0  0  0  0
    5.3837   23.5515    6.8297 S   0  0  0  0  0  0  0  0  0  0  0  0
    5.4279   22.9277    5.5219 O   0  0  0  0  0  0  0  0  0  0  0  0
    4.8477   22.8581    7.9844 O   0  0  0  0  0  0  0  0  0  0  0  0
    4.5768   25.1270    6.6846 C   0  0  0  0  0  0  0  0  0  0  0  0
    3.9022   25.6779    7.7712 C   0  0  0  0  0  0  0  0  0  0  0  0
    3.2273   26.8815    7.6268 C   0  0  0  0  0  0  0  0  0  0  0  0
    3.2722   27.5665    6.4062 C   0  0  0  0  0  0  0  0  0  0  0  0
    2.6187   28.7998    6.1941 N   0  0  0  0  0  0  0  0  0  0  0  0
    1.4785   29.2712    6.7972 C   0  0  0  0  0  0  0  0  0  0  0  0
    0.7695   28.4095    7.5484 N   0  0  0  0  0  0  0  0  0  0  0  0
   -0.3087   28.8384    8.1916 C   0  0  0  0  0  0  0  0  0  0  0  0
   -0.9117   28.0097    9.0551 O   0  0  0  0  0  0  0  0  0  0  0  0
   -0.5765   26.6095    8.9617 C   0  0  0  0  0  0  0  0  0  0  0  0
   -1.2284   25.7921   10.0879 C   0  0  0  0  0  0  0  0  0  0  0  0
   -1.3207   24.3358    9.5933 C   0  0  0  0  0  0  0  0  0  0  0  0
   -1.7324   23.3164   10.6570 C   0  0  0  0  0  0  0  0  0  0  0  0
   -0.8044   23.3938   11.8675 C   0  0  0  0  0  0  0  0  0  0  0  0
   -0.8155   24.8102   12.4443 C   0  0  0  0  0  0  0  0  0  0  0  0
   -0.3998   25.8497   11.3907 C   0  0  0  0  0  0  0  0  0  0  0  0
   -0.7762   30.1507    7.9869 C   0  0  0  0  0  0  0  0  0  0  0  0
   -1.8532   30.9002    8.4454 N   0  0  0  0  0  0  0  0  0  0  0  0
   -1.6578   32.0754    7.9237 C   0  0  0  0  0  0  0  0  0  0  0  0
   -0.5337   32.1631    7.1350 N   0  0  0  0  0  0  0  0  0  0  0  0
    0.0556   30.9261    7.1669 C   0  0  0  0  0  0  0  0  0  0  0  0
    1.1790   30.5539    6.5517 N   0  0  0  0  0  0  0  0  0  0  0  0
    3.9968   27.0243    5.3391 C   0  0  0  0  0  0  0  0  0  0  0  0
    4.6404   25.8067    5.4694 C   0  0  0  0  0  0  0  0  0  0  0  0
  1  2  1  0
  2  3  2  0
  2  4  2  0
  2  5  1  0
  5  6  2  0
  6  7  1  0
  7  8  2  0
  8  9  1  0
  9 10  1  0
 10 11  2  0
 11 12  1  0
 12 13  1  0
 13 14  1  0
 14 15  1  0
 15 16  1  0
 16 17  1  0
 17 18  1  0
 18 19  1  0
 19 20  1  0
 12 21  2  0
 21 22  1  0
 22 23  2  0
 23 24  1  0
 24 25  1  0
 25 26  2  0
  8 27  1  0
 27 28  2  0
 28  5  1  0
 26 10  1  0
 20 15  1  0
 25 21  1  0
M  END
>  <cnnaffinities>  (10) 
[7.08582, 7.17461]

>  <score>  (10) 
7.08582

>  <index>  (10) 
5

>  <Smiles>  (10) 
N(S(=O)(=O)c1c(c(c(N(c2nc(OC(C3(C(C(C(C(C3([H])[H])([H])[H])([H])[H])([H])[H])([H])[H])[H])([H])[H])c3nc(n(c3n2)[H])[H])[H])c(c1[H])[H])[H])[H])([H])[H]

>  <h>  (10) 
<NA>

>  <Training>  (10) 
True

>  <Success>  (10) 
True

>  <enamine_searched>  (10) 
False

>  <enamine_id>  (10) 
nan

$$$$

     RDKit          3D

 25 28  0  0  0  0  0  0  0  0999 V2000
    5.7519   25.1032    4.0526 Br  0  0  0  0  0  0  0  0  0  0  0  0
    4.7741   25.8575    5.5168 C   0  0  0  0  0  0  0  0  0  0  0  0
    4.8007   25.2374    6.7717 C   0  0  0  0  0  0  0  0  0  0  0  0
    4.0859   25.7835    7.8442 C   0  0  0  0  0  0  0  0  0  0  0  0
    3.3191   26.9390    7.6498 C   0  0  0  0  0  0  0  0  0  0  0  0
    3.2597   27.5457    6.3945 C   0  0  0  0  0  0  0  0  0  0  0  0
    2.4872   28.6757    6.1571 N   0  0  0  0  0  0  0  0  0  0  0  0
    1.3917   29.0950    6.8083 C   0  0  0  0  0  0  0  0  0  0  0  0
    0.6167   28.2393    7.4182 N   0  0  0  0  0  0  0  0  0  0  0  0
   -0.4791   28.7303    8.0142 C   0  0  0  0  0  0  0  0  0  0  0  0
   -1.2604   27.8808    8.7530 O   0  0  0  0  0  0  0  0  0  0  0  0
   -0.6179   26.6253    9.0307 C   0  0  0  0  0  0  0  0  0  0  0  0
   -1.2507   25.7471   10.1104 C   0  0  0  0  0  0  0  0  0  0  0  0
   -1.3396   24.3094    9.5574 C   0  0  0  0  0  0  0  0  0  0  0  0
   -1.6817   23.2650   10.6170 C   0  0  0  0  0  0  0  0  0  0  0  0
   -0.7789   23.3619   11.8494 C   0  0  0  0  0  0  0  0  0  0  0  0
   -0.7380   24.7771   12.4336 C   0  0  0  0  0  0  0  0  0  0  0  0
   -0.3873   25.8306   11.3829 C   0  0  0  0  0  0  0  0  0  0  0  0
   -0.8154   30.0864    7.9635 C   0  0  0  0  0  0  0  0  0  0  0  0
   -1.8329   30.9562    8.4427 N   0  0  0  0  0  0  0  0  0  0  0  0
   -1.4975   32.1496    7.9970 C   0  0  0  0  0  0  0  0  0  0  0  0
   -0.3146   32.0804    7.3014 N   0  0  0  0  0  0  0  0  0  0  0  0
    0.0931   30.8078    7.2600 C   0  0  0  0  0  0  0  0  0  0  0  0
    1.1731   30.3826    6.6506 N   0  0  0  0  0  0  0  0  0  0  0  0
    4.0163   27.0204    5.3419 C   0  0  0  0  0  0  0  0  0  0  0  0
  1  2  1  0
  2  3  2  0
  3  4  1  0
  4  5  2  0
  5  6  1  0
  6  7  1  0
  7  8  1  0
  8  9  2  0
  9 10  1  0
 10 11  1  0
 11 12  1  0
 12 13  1  0
 13 14  1  0
 14 15  1  0
 15 16  1  0
 16 17  1  0
 17 18  1  0
 10 19  2  0
 19 20  1  0
 20 21  2  0
 21 22  1  0
 22 23  1  0
 23 24  2  0
  6 25  2  0
 25  2  1  0
 24  8  1  0
 18 13  1  0
 23 19  1  0
M  END
>  <cnnaffinities>  (11) 
[7.04505]

>  <score>  (11) 
7.04505

>  <index>  (11) 
0

>  <Smiles>  (11) 
Brc1c(c(c(c(N(c2nc(OC(C3(C(C(C(C(C3([H])[H])([H])[H])([H])[H])([H])[H])([H])[H])[H])([H])[H])c3nc(n(c3n2)[H])[H])[H])c1[H])[H])[H])[H]

>  <h>  (11) 
<NA>

>  <Training>  (11) 
True

>  <Success>  (11) 
True

>  <enamine_searched>  (11) 
False

>  <enamine_id>  (11) 
nan

$$$$

     RDKit          3D

 26 29  0  0  0  0  0  0  0  0999 V2000
    5.5400   25.7758    3.2771 C   0  0  0  0  0  0  0  0  0  0  0  0
    5.5205   25.1731    4.5503 O   0  0  0  0  0  0  0  0  0  0  0  0
    4.7767   25.7968    5.5064 C   0  0  0  0  0  0  0  0  0  0  0  0
    4.8180   25.1989    6.7714 C   0  0  0  0  0  0  0  0  0  0  0  0
    4.0853   25.7467    7.8089 C   0  0  0  0  0  0  0  0  0  0  0  0
    3.2853   26.8696    7.6219 C   0  0  0  0  0  0  0  0  0  0  0  0
    3.2740   27.4924    6.3727 C   0  0  0  0  0  0  0  0  0  0  0  0
    2.5773   28.6992    6.1261 N   0  0  0  0  0  0  0  0  0  0  0  0
    1.4629   29.2045    6.7555 C   0  0  0  0  0  0  0  0  0  0  0  0
    0.7370   28.3516    7.5078 N   0  0  0  0  0  0  0  0  0  0  0  0
   -0.3335   28.8133    8.1479 C   0  0  0  0  0  0  0  0  0  0  0  0
   -0.9824   28.0032    8.9962 O   0  0  0  0  0  0  0  0  0  0  0  0
   -0.5890   26.6131    8.9761 C   0  0  0  0  0  0  0  0  0  0  0  0
   -1.2532   25.7903   10.0991 C   0  0  0  0  0  0  0  0  0  0  0  0
   -1.3368   24.3331    9.6019 C   0  0  0  0  0  0  0  0  0  0  0  0
   -1.7322   23.2938   10.6567 C   0  0  0  0  0  0  0  0  0  0  0  0
   -0.7974   23.3765   11.8658 C   0  0  0  0  0  0  0  0  0  0  0  0
   -0.8013   24.7913   12.4539 C   0  0  0  0  0  0  0  0  0  0  0  0
   -0.4107   25.8362   11.3958 C   0  0  0  0  0  0  0  0  0  0  0  0
   -0.7457   30.1423    7.9525 C   0  0  0  0  0  0  0  0  0  0  0  0
   -1.8285   30.8796    8.4009 N   0  0  0  0  0  0  0  0  0  0  0  0
   -1.6155   32.0710    7.9199 C   0  0  0  0  0  0  0  0  0  0  0  0
   -0.4654   32.1678    7.1621 N   0  0  0  0  0  0  0  0  0  0  0  0
    0.1094   30.9162    7.1578 C   0  0  0  0  0  0  0  0  0  0  0  0
    1.2104   30.5014    6.5221 N   0  0  0  0  0  0  0  0  0  0  0  0
    4.0282   26.9561    5.3146 C   0  0  0  0  0  0  0  0  0  0  0  0
  1  2  1  0
  2  3  1  0
  3  4  2  0
  4  5  1  0
  5  6  2  0
  6  7  1  0
  7  8  1  0
  8  9  1  0
  9 10  2  0
 10 11  1  0
 11 12  1  0
 12 13  1  0
 13 14  1  0
 14 15  1  0
 15 16  1  0
 16 17  1  0
 17 18  1  0
 18 19  1  0
 11 20  2  0
 20 21  1  0
 21 22  2  0
 22 23  1  0
 23 24  1  0
 24 25  2  0
  7 26  2  0
 26  3  1  0
 25  9  1  0
 19 14  1  0
 24 20  1  0
M  END
>  <cnnaffinities>  (12) 
[7.029]

>  <score>  (12) 
7.029

>  <index>  (12) 
6

>  <Smiles>  (12) 
C(Oc1c(c(c(c(N(c2nc(OC(C3(C(C(C(C(C3([H])[H])([H])[H])([H])[H])([H])[H])([H])[H])[H])([H])[H])c3nc(n(c3n2)[H])[H])[H])c1[H])[H])[H])[H])([H])([H])[H]

>  <h>  (12) 
<NA>

>  <Training>  (12) 
True

>  <Success>  (12) 
True

>  <enamine_searched>  (12) 
False

>  <enamine_id>  (12) 
nan

$$$$

     RDKit          3D

 25 28  0  0  0  0  0  0  0  0999 V2000
    5.6883   25.2156    4.2423 Cl  0  0  0  0  0  0  0  0  0  0  0  0
    4.7607   25.8575    5.5649 C   0  0  0  0  0  0  0  0  0  0  0  0
    4.8130   25.2311    6.8024 C   0  0  0  0  0  0  0  0  0  0  0  0
    4.0564   25.7690    7.8364 C   0  0  0  0  0  0  0  0  0  0  0  0
    3.2746   26.9068    7.6528 C   0  0  0  0  0  0  0  0  0  0  0  0
    3.2621   27.5464    6.4107 C   0  0  0  0  0  0  0  0  0  0  0  0
    2.5831   28.7547    6.1524 N   0  0  0  0  0  0  0  0  0  0  0  0
    1.4541   29.2281    6.7772 C   0  0  0  0  0  0  0  0  0  0  0  0
    0.7682   28.3633    7.5331 N   0  0  0  0  0  0  0  0  0  0  0  0
   -0.2728   28.7625    8.2556 C   0  0  0  0  0  0  0  0  0  0  0  0
   -0.7485   27.8695    9.1603 O   0  0  0  0  0  0  0  0  0  0  0  0
   -0.2236   26.5121    8.9461 C   0  0  0  0  0  0  0  0  0  0  0  0
   -0.4236   25.4134   10.0043 C   0  0  0  0  0  0  0  0  0  0  0  0
   -1.5635   24.4503    9.6217 C   0  0  0  0  0  0  0  0  0  0  0  0
   -1.8086   23.3534   10.6906 C   0  0  0  0  0  0  0  0  0  0  0  0
   -0.7991   23.4190   11.8428 C   0  0  0  0  0  0  0  0  0  0  0  0
   -0.8524   24.8233   12.4552 C   0  0  0  0  0  0  0  0  0  0  0  0
   -0.5561   25.9481   11.4258 C   0  0  0  0  0  0  0  0  0  0  0  0
   -0.7704   30.0798    8.0461 C   0  0  0  0  0  0  0  0  0  0  0  0
   -1.8470   30.8408    8.4923 N   0  0  0  0  0  0  0  0  0  0  0  0
   -1.6607   32.0157    7.9610 C   0  0  0  0  0  0  0  0  0  0  0  0
   -0.5420   32.0993    7.1671 N   0  0  0  0  0  0  0  0  0  0  0  0
    0.0403   30.8611    7.1975 C   0  0  0  0  0  0  0  0  0  0  0  0
    1.1430   30.5046    6.5448 N   0  0  0  0  0  0  0  0  0  0  0  0
    4.0095   27.0043    5.3597 C   0  0  0  0  0  0  0  0  0  0  0  0
  1  2  1  0
  2  3  2  0
  3  4  1  0
  4  5  2  0
  5  6  1  0
  6  7  1  0
  7  8  1  0
  8  9  2  0
  9 10  1  0
 10 11  1  0
 11 12  1  0
 12 13  1  0
 13 14  1  0
 14 15  1  0
 15 16  1  0
 16 17  1  0
 17 18  1  0
 10 19  2  0
 19 20  1  0
 20 21  2  0
 21 22  1  0
 22 23  1  0
 23 24  2  0
  6 25  2  0
 25  2  1  0
 24  8  1  0
 18 13  1  0
 23 19  1  0
M  END
>  <cnnaffinities>  (13) 
[7.0259]

>  <score>  (13) 
7.0259

>  <index>  (13) 
4

>  <Smiles>  (13) 
Clc1c(c(c(c(N(c2nc(OC(C3(C(C(C(C(C3([H])[H])([H])[H])([H])[H])([H])[H])([H])[H])[H])([H])[H])c3nc(n(c3n2)[H])[H])[H])c1[H])[H])[H])[H]

>  <h>  (13) 
<NA>

>  <Training>  (13) 
True

>  <Success>  (13) 
True

>  <enamine_searched>  (13) 
False

>  <enamine_id>  (13) 
nan

$$$$

     RDKit          3D

 26 29  0  0  0  0  0  0  0  0999 V2000
    6.8371   25.4814    4.2546 O   0  0  0  0  0  0  0  0  0  0  0  0
    5.4512   25.1919    4.2985 C   0  0  0  0  0  0  0  0  0  0  0  0
    4.7482   25.7969    5.4912 C   0  0  0  0  0  0  0  0  0  0  0  0
    4.8630   25.2280    6.7586 C   0  0  0  0  0  0  0  0  0  0  0  0
    4.1284   25.7512    7.8171 C   0  0  0  0  0  0  0  0  0  0  0  0
    3.3110   26.8653    7.6399 C   0  0  0  0  0  0  0  0  0  0  0  0
    3.2984   27.5229    6.4061 C   0  0  0  0  0  0  0  0  0  0  0  0
    2.6358   28.7585    6.1942 N   0  0  0  0  0  0  0  0  0  0  0  0
    1.5036   29.2455    6.7986 C   0  0  0  0  0  0  0  0  0  0  0  0
    0.7984   28.3901    7.5613 N   0  0  0  0  0  0  0  0  0  0  0  0
   -0.2844   28.8224    8.1944 C   0  0  0  0  0  0  0  0  0  0  0  0
   -0.8934   28.0039    9.0645 O   0  0  0  0  0  0  0  0  0  0  0  0
   -0.5814   26.6014    8.9623 C   0  0  0  0  0  0  0  0  0  0  0  0
   -1.2308   25.7877   10.0908 C   0  0  0  0  0  0  0  0  0  0  0  0
   -1.3228   24.3326    9.5949 C   0  0  0  0  0  0  0  0  0  0  0  0
   -1.7350   23.3182   10.6603 C   0  0  0  0  0  0  0  0  0  0  0  0
   -0.8063   23.3966   11.8683 C   0  0  0  0  0  0  0  0  0  0  0  0
   -0.8193   24.8126   12.4426 C   0  0  0  0  0  0  0  0  0  0  0  0
   -0.4006   25.8496   11.3904 C   0  0  0  0  0  0  0  0  0  0  0  0
   -0.7562   30.1292    7.9835 C   0  0  0  0  0  0  0  0  0  0  0  0
   -1.8317   30.8781    8.4458 N   0  0  0  0  0  0  0  0  0  0  0  0
   -1.6364   32.0505    7.9134 C   0  0  0  0  0  0  0  0  0  0  0  0
   -0.5156   32.1363    7.1177 N   0  0  0  0  0  0  0  0  0  0  0  0
    0.0732   30.8998    7.1567 C   0  0  0  0  0  0  0  0  0  0  0  0
    1.1994   30.5265    6.5418 N   0  0  0  0  0  0  0  0  0  0  0  0
    4.0102   26.9647    5.3362 C   0  0  0  0  0  0  0  0  0  0  0  0
  1  2  1  0
  2  3  1  0
  3  4  2  0
  4  5  1  0
  5  6  2  0
  6  7  1  0
  7  8  1  0
  8  9  1  0
  9 10  2  0
 10 11  1  0
 11 12  1  0
 12 13  1  0
 13 14  1  0
 14 15  1  0
 15 16  1  0
 16 17  1  0
 17 18  1  0
 18 19  1  0
 11 20  2  0
 20 21  1  0
 21 22  2  0
 22 23  1  0
 23 24  1  0
 24 25  2  0
  7 26  2  0
 26  3  1  0
 25  9  1  0
 19 14  1  0
 24 20  1  0
M  END
>  <cnnaffinities>  (14) 
[7.02173]

>  <score>  (14) 
7.02173

>  <index>  (14) 
13

>  <Smiles>  (14) 
O(C(c1c(c(c(c(N(c2nc(OC(C3(C(C(C(C(C3([H])[H])([H])[H])([H])[H])([H])[H])([H])[H])[H])([H])[H])c3nc(n(c3n2)[H])[H])[H])c1[H])[H])[H])[H])([H])[H])[H]

>  <h>  (14) 
<NA>

>  <Training>  (14) 
True

>  <Success>  (14) 
True

>  <enamine_searched>  (14) 
False

>  <enamine_id>  (14) 
nan

$$$$

     RDKit          3D

 24 27  0  0  0  0  0  0  0  0999 V2000
    4.8255   25.2090    6.7919 C   0  0  0  0  0  0  0  0  0  0  0  0
    4.0830   25.7503    7.8343 C   0  0  0  0  0  0  0  0  0  0  0  0
    3.2762   26.8711    7.6530 C   0  0  0  0  0  0  0  0  0  0  0  0
    3.2394   27.4857    6.3965 C   0  0  0  0  0  0  0  0  0  0  0  0
    2.5100   28.6616    6.0806 N   0  0  0  0  0  0  0  0  0  0  0  0
    1.4215   29.1884    6.7353 C   0  0  0  0  0  0  0  0  0  0  0  0
    0.7045   28.3440    7.4977 N   0  0  0  0  0  0  0  0  0  0  0  0
   -0.3739   28.8049    8.1232 C   0  0  0  0  0  0  0  0  0  0  0  0
   -1.0632   27.9942    8.9445 O   0  0  0  0  0  0  0  0  0  0  0  0
   -0.6042   26.6269    9.0076 C   0  0  0  0  0  0  0  0  0  0  0  0
   -1.2590   25.7737   10.1154 C   0  0  0  0  0  0  0  0  0  0  0  0
   -1.3406   24.3207    9.6052 C   0  0  0  0  0  0  0  0  0  0  0  0
   -1.7208   23.2713   10.6531 C   0  0  0  0  0  0  0  0  0  0  0  0
   -0.7963   23.3644   11.8666 C   0  0  0  0  0  0  0  0  0  0  0  0
   -0.7852   24.7779   12.4513 C   0  0  0  0  0  0  0  0  0  0  0  0
   -0.4151   25.8266   11.3990 C   0  0  0  0  0  0  0  0  0  0  0  0
   -0.7700   30.1429    7.9481 C   0  0  0  0  0  0  0  0  0  0  0  0
   -1.8417   30.8997    8.3880 N   0  0  0  0  0  0  0  0  0  0  0  0
   -1.5946   32.0934    7.9356 C   0  0  0  0  0  0  0  0  0  0  0  0
   -0.4239   32.1936    7.2156 N   0  0  0  0  0  0  0  0  0  0  0  0
    0.1093   30.9218    7.1866 C   0  0  0  0  0  0  0  0  0  0  0  0
    1.1883   30.4899    6.5261 N   0  0  0  0  0  0  0  0  0  0  0  0
    4.0144   26.9650    5.3598 C   0  0  0  0  0  0  0  0  0  0  0  0
    4.7836   25.8269    5.5449 C   0  0  0  0  0  0  0  0  0  0  0  0
  1  2  2  0
  2  3  1  0
  3  4  2  0
  4  5  1  0
  5  6  1  0
  6  7  2  0
  7  8  1  0
  8  9  1  0
  9 10  1  0
 10 11  1  0
 11 12  1  0
 12 13  1  0
 13 14  1  0
 14 15  1  0
 15 16  1  0
  8 17  2  0
 17 18  1  0
 18 19  2  0
 19 20  1  0
 20 21  1  0
 21 22  2  0
  4 23  1  0
 23 24  2  0
 24  1  1  0
 22  6  1  0
 16 11  1  0
 21 17  1  0
M  END
>  <cnnaffinities>  (15) 
[6.95055]

>  <score>  (15) 
6.95055

>  <index>  (15) 
15

>  <Smiles>  (15) 
c1(c(c(c(N(c2nc(OC(C3(C(C(C(C(C3([H])[H])([H])[H])([H])[H])([H])[H])([H])[H])[H])([H])[H])c3nc(n(c3n2)[H])[H])[H])c(c1[H])[H])[H])[H])[H]

>  <h>  (15) 
<NA>

>  <Training>  (15) 
True

>  <Success>  (15) 
True

>  <enamine_searched>  (15) 
False

>  <enamine_id>  (15) 
nan

$$$$

     RDKit          3D

 28 31  0  0  0  0  0  0  0  0999 V2000
    7.1282   25.6399    3.9679 N   0  0  0  0  0  0  0  0  0  0  0  0
    5.5653   25.0534    4.1254 S   0  0  0  0  0  0  0  0  0  0  0  0
    4.8540   25.5282    2.9562 O   0  0  0  0  0  0  0  0  0  0  0  0
    5.7053   23.6448    4.4513 O   0  0  0  0  0  0  0  0  0  0  0  0
    4.7700   25.8177    5.5301 C   0  0  0  0  0  0  0  0  0  0  0  0
    4.8397   25.2034    6.7759 C   0  0  0  0  0  0  0  0  0  0  0  0
    4.1102   25.7461    7.8264 C   0  0  0  0  0  0  0  0  0  0  0  0
    3.2996   26.8639    7.6478 C   0  0  0  0  0  0  0  0  0  0  0  0
    3.2670   27.4934    6.3982 C   0  0  0  0  0  0  0  0  0  0  0  0
    2.5458   28.6774    6.1136 N   0  0  0  0  0  0  0  0  0  0  0  0
    1.4441   29.2001    6.7485 C   0  0  0  0  0  0  0  0  0  0  0  0
    0.7257   28.3519    7.5047 N   0  0  0  0  0  0  0  0  0  0  0  0
   -0.3475   28.8122    8.1370 C   0  0  0  0  0  0  0  0  0  0  0  0
   -1.0195   28.0045    8.9744 O   0  0  0  0  0  0  0  0  0  0  0  0
   -0.5966   26.6233    8.9890 C   0  0  0  0  0  0  0  0  0  0  0  0
   -1.2560   25.7865   10.1051 C   0  0  0  0  0  0  0  0  0  0  0  0
   -1.3373   24.3296    9.6051 C   0  0  0  0  0  0  0  0  0  0  0  0
   -1.7291   23.2826   10.6549 C   0  0  0  0  0  0  0  0  0  0  0  0
   -0.7963   23.3709   11.8652 C   0  0  0  0  0  0  0  0  0  0  0  0
   -0.7949   24.7849   12.4541 C   0  0  0  0  0  0  0  0  0  0  0  0
   -0.4135   25.8301   11.3958 C   0  0  0  0  0  0  0  0  0  0  0  0
   -0.7492   30.1423    7.9465 C   0  0  0  0  0  0  0  0  0  0  0  0
   -1.8303   30.8836    8.3917 N   0  0  0  0  0  0  0  0  0  0  0  0
   -1.6081   32.0782    7.9282 C   0  0  0  0  0  0  0  0  0  0  0  0
   -0.4477   32.1777    7.1861 N   0  0  0  0  0  0  0  0  0  0  0  0
    0.1114   30.9202    7.1673 C   0  0  0  0  0  0  0  0  0  0  0  0
    1.2041   30.5033    6.5179 N   0  0  0  0  0  0  0  0  0  0  0  0
    4.0317   26.9769    5.3445 C   0  0  0  0  0  0  0  0  0  0  0  0
  1  2  1  0
  2  3  2  0
  2  4  2  0
  2  5  1  0
  5  6  2  0
  6  7  1  0
  7  8  2  0
  8  9  1  0
  9 10  1  0
 10 11  1  0
 11 12  2  0
 12 13  1  0
 13 14  1  0
 14 15  1  0
 15 16  1  0
 16 17  1  0
 17 18  1  0
 18 19  1  0
 19 20  1  0
 20 21  1  0
 13 22  2  0
 22 23  1  0
 23 24  2  0
 24 25  1  0
 25 26  1  0
 26 27  2  0
  9 28  2  0
 28  5  1  0
 27 11  1  0
 21 16  1  0
 26 22  1  0
M  END
>  <cnnaffinities>  (16) 
[6.9021, 7.06301]

>  <score>  (16) 
6.9021

>  <index>  (16) 
8

>  <Smiles>  (16) 
N(S(=O)(=O)c1c(c(c(c(N(c2nc(OC(C3(C(C(C(C(C3([H])[H])([H])[H])([H])[H])([H])[H])([H])[H])[H])([H])[H])c3nc(n(c3n2)[H])[H])[H])c1[H])[H])[H])[H])([H])[H]

>  <h>  (16) 
<NA>

>  <Training>  (16) 
True

>  <Success>  (16) 
True

>  <enamine_searched>  (16) 
False

>  <enamine_id>  (16) 
nan

$$$$
